*Heading
** Job name: NoUGENS_OneElement_test101 Model name: Model-1
** Generated by: Abaqus/CAE 2019
*Preprint, echo=NO, model=NO, history=NO, contact=NO
**
** PARTS
**
*Part, name=Fabric
*Node
      1,           0.,           0.,           0.
      2,           1.,           0.,           0.
      3,           0.,           1.,           0.
      4,           1.,           1.,           0.
*Element, type=S4R
1, 1, 2, 4, 3
** Region: (CompositeLayup-1-1: Generated From Layup)
*Elset, elset=CompositeLayup-1-1
 1,
** Section: CompositeLayup-1-1
*** ------------
** Inserting the UGENS
*** ------------
*** Cij
*** The first number is thickness of the layer
*Shell General Section, elset=CompositeLayup-1-1, USER, PROPERTIES=1, VARIABLES=1
1.0 
1000.0
*Transverse Shear Stiffness
1,1,0
*** ------------
*End Part
**  
**
** ASSEMBLY
**
*Assembly, name=Assembly
**  
*Instance, name=Fabric-1, part=Fabric
*End Instance
**  
*Nset, nset=Set-1, instance=Fabric-1
 1, 3
*Elset, elset=Set-1, instance=Fabric-1
 1,
*Nset, nset=Set-2, instance=Fabric-1
 2, 4
*Elset, elset=Set-2, instance=Fabric-1
 1,
*Nset, nset=Set-3, instance=Fabric-1
 1, 2
*Elset, elset=Set-3, instance=Fabric-1
 1,
*Nset, nset=Set-4, instance=Fabric-1
 3, 4
*Elset, elset=Set-4, instance=Fabric-1
 1,
*Nset, nset=Set-5, instance=Fabric-1
 1,
*Nset, nset=Set-6, instance=Fabric-1
 2,
*Nset, nset=Set-7, instance=Fabric-1
 4,
*Nset, nset=Set-8, instance=Fabric-1
 3,
*End Assembly
** 
** MATERIALS
** 
*Material, name=Mat1
*Elastic
200000., 0.3
** ----------------------------------------------------------------
** 
** STEP: Step-1
** 
*Step, name=Step-1, nlgeom=NO, inc=10000
*Static
0.1, 1., 1e-08, 0.1
** 
** BOUNDARY CONDITIONS
** 
** Name: node_1 Type: Displacement/Rotation
*Boundary
Set-5, 1, 1
Set-5, 2, 2
Set-5, 3, 3
** Name: node_2 Type: Displacement/Rotation
*Boundary
Set-6, 1, 1, 1.
Set-6, 2, 2
Set-6, 3, 3
** Name: node_3 Type: Displacement/Rotation
*Boundary
Set-7, 1, 1, 1.
Set-7, 2, 2
Set-7, 3, 3
** Name: node_4 Type: Displacement/Rotation
*Boundary
Set-8, 1, 1
Set-8, 2, 2
Set-8, 3, 3
** 
** OUTPUT REQUESTS
** 
*Restart, write, frequency=0
** 
** FIELD OUTPUT: F-Output-1
** 
*Output, field
*Node Output
RF, U
*Element Output, directions=YES
E, S, SDV
** 
** HISTORY OUTPUT: H-Output-1
** 
*Output, history, variable=PRESELECT
*End Step
